Version 4
SHEET 1 1192 792
WIRE 240 -544 -80 -544
WIRE 240 -496 240 -544
WIRE 240 -496 208 -496
WIRE 96 -480 64 -480
WIRE 224 -464 208 -464
WIRE 96 -448 -96 -448
WIRE 240 -432 208 -432
WIRE 608 -368 608 -400
WIRE -192 -336 -272 -336
WIRE -96 -336 -96 -448
WIRE -96 -336 -192 -336
WIRE 0 -320 0 -336
WIRE 64 -320 64 -480
WIRE 64 -320 0 -320
WIRE 80 -320 64 -320
WIRE 144 -320 80 -320
WIRE 320 -320 256 -320
WIRE 448 -320 432 -320
WIRE 544 -320 528 -320
WIRE -192 -304 -192 -336
WIRE 80 -288 80 -320
WIRE -80 -272 -80 -544
WIRE 608 -240 608 -272
WIRE 832 -240 608 -240
WIRE 976 -240 832 -240
WIRE -80 -208 80 -288
WIRE 608 -208 608 -240
WIRE 80 -192 -80 -272
WIRE -80 -176 -80 -208
WIRE -64 -176 -80 -176
WIRE 48 -160 32 -160
WIRE 80 -160 80 -192
WIRE 80 -160 48 -160
WIRE 288 -160 80 -160
WIRE 448 -160 400 -160
WIRE 544 -160 528 -160
WIRE -192 -144 -192 -192
WIRE -96 -144 -192 -144
WIRE 32 -144 32 -160
WIRE 32 -144 0 -144
WIRE 48 -144 48 -160
WIRE 976 -144 976 -240
WIRE 1104 -144 976 -144
WIRE 240 -80 80 -80
WIRE 608 -80 608 -112
WIRE 832 -80 832 -240
WIRE 880 -80 832 -80
WIRE 1008 -80 960 -80
WIRE -272 -64 -272 -336
WIRE -272 -64 -352 -64
WIRE -96 -32 -96 -144
WIRE 80 -32 80 -80
WIRE 80 -32 -96 -32
WIRE 240 -32 240 -80
WIRE 240 -32 208 -32
WIRE 0 -16 0 -144
WIRE 96 -16 0 -16
WIRE 1008 -16 1008 -80
WIRE 224 0 208 0
WIRE 1152 0 1152 -16
WIRE -64 16 -64 -176
WIRE 96 16 -64 16
WIRE 1104 16 1104 -144
WIRE 240 32 208 32
WIRE -272 64 -352 64
WIRE 1152 96 1152 80
WIRE 880 128 832 128
WIRE 1008 128 1008 64
WIRE 1008 128 960 128
WIRE 656 160 656 128
WIRE 240 176 -80 176
WIRE -272 192 -272 64
WIRE -192 192 -272 192
WIRE 1104 192 1104 64
WIRE 1104 192 976 192
WIRE 496 208 464 208
WIRE 592 208 576 208
WIRE 240 224 240 176
WIRE 240 224 208 224
WIRE 96 240 64 240
WIRE 224 256 208 256
WIRE 96 272 -96 272
WIRE 240 288 208 288
WIRE 656 288 656 256
WIRE 832 288 656 288
WIRE 976 288 976 192
WIRE 976 288 832 288
WIRE 656 320 656 288
WIRE 592 368 576 368
WIRE -192 384 -192 192
WIRE -96 384 -96 272
WIRE -96 384 -192 384
WIRE 0 400 0 384
WIRE 64 400 64 240
WIRE 64 400 0 400
WIRE 80 400 64 400
WIRE 144 400 80 400
WIRE 320 400 256 400
WIRE 464 400 464 208
WIRE 464 400 432 400
WIRE -192 416 -192 384
WIRE 80 432 80 400
WIRE -80 448 -80 176
WIRE 656 448 656 416
WIRE -80 512 80 432
WIRE 80 528 -80 448
WIRE -80 544 -80 512
WIRE -64 544 -80 544
WIRE 48 560 32 560
WIRE 80 560 80 528
WIRE 80 560 48 560
WIRE 288 560 80 560
WIRE 496 560 496 368
WIRE 496 560 400 560
WIRE -192 576 -192 528
WIRE -96 576 -192 576
WIRE 32 576 32 560
WIRE 32 576 0 576
WIRE 48 576 48 560
WIRE 240 640 80 640
WIRE -96 688 -96 576
WIRE 80 688 80 640
WIRE 80 688 -96 688
WIRE 240 688 240 640
WIRE 240 688 208 688
WIRE 0 704 0 576
WIRE 96 704 0 704
WIRE 224 720 208 720
WIRE -64 736 -64 544
WIRE 96 736 -64 736
WIRE 240 752 208 752
FLAG 608 -80 0
FLAG 608 -400 VDD
IOPIN 608 -400 In
FLAG 656 448 0
FLAG 656 128 VDD
IOPIN 656 128 In
FLAG 0 -400 0
FLAG 48 -80 0
FLAG 1152 -16 Vaudio
IOPIN 1152 -16 Out
FLAG 1152 96 0
FLAG 224 -464 VDD
IOPIN 224 -464 In
FLAG 240 -432 0
FLAG 384 -352 VDD
IOPIN 384 -352 In
FLAG 384 -288 0
FLAG 208 -352 VDD
IOPIN 208 -352 In
FLAG 208 -288 0
FLAG 352 -192 VDD
IOPIN 352 -192 In
FLAG 352 -128 0
FLAG 224 0 VDD
IOPIN 224 0 In
FLAG 240 32 0
FLAG -160 -240 VDD
IOPIN -160 -240 In
FLAG -224 -240 0
FLAG 0 320 0
FLAG 48 640 0
FLAG 224 256 VDD
IOPIN 224 256 In
FLAG 240 288 0
FLAG 384 368 VDD
IOPIN 384 368 In
FLAG 384 432 0
FLAG 208 368 VDD
IOPIN 208 368 In
FLAG 208 432 0
FLAG 352 528 VDD
IOPIN 352 528 In
FLAG 352 592 0
FLAG 224 720 VDD
IOPIN 224 720 In
FLAG 240 752 0
FLAG -160 480 VDD
IOPIN -160 480 In
FLAG -224 480 0
FLAG -352 64 Vpwm_n
IOPIN -352 64 In
FLAG -352 -64 Vpwm_p
IOPIN -352 -64 In
FLAG 832 -240 Vp
IOPIN 832 -240 Out
FLAG 832 288 Vn
IOPIN 832 288 Out
SYMBOL res 544 -336 R90
WINDOW 0 0 56 VBottom 2
WINDOW 3 32 56 VTop 2
SYMATTR InstName Rb1
SYMATTR Value {R}
SYMBOL res 544 -176 R90
WINDOW 0 0 56 VBottom 2
WINDOW 3 32 56 VTop 2
SYMATTR InstName Rb2
SYMATTR Value {R}
SYMBOL pnp 544 -272 M180
WINDOW 3 84 68 Invisible 2
SYMATTR Value 2N2907
SYMATTR InstName Qp1
SYMBOL npn 544 -208 R0
WINDOW 3 56 68 Invisible 2
SYMATTR Value 2N2222
SYMATTR InstName Qn1
SYMBOL res 592 192 R90
WINDOW 0 0 56 VBottom 2
WINDOW 3 32 56 VTop 2
SYMATTR InstName Rb3
SYMATTR Value {R}
SYMBOL res 592 352 R90
WINDOW 0 0 56 VBottom 2
WINDOW 3 32 56 VTop 2
SYMATTR InstName Rb4
SYMATTR Value {R}
SYMBOL pnp 592 256 M180
WINDOW 3 84 68 Invisible 2
SYMATTR Value 2N2907
SYMATTR InstName Qp2
SYMBOL npn 592 320 R0
WINDOW 3 56 68 Invisible 2
SYMATTR Value 2N2222
SYMATTR InstName Qn2
SYMBOL res 976 -96 R90
WINDOW 0 0 56 VBottom 2
WINDOW 3 32 56 VTop 2
SYMATTR InstName R3
SYMATTR Value 16
SYMBOL res 976 112 R90
WINDOW 0 0 56 VBottom 2
WINDOW 3 32 56 VTop 2
SYMATTR InstName R4
SYMATTR Value 16
SYMBOL cap -16 -400 R0
SYMATTR InstName C1
SYMATTR Value {C}
SYMBOL cap 32 -144 R0
SYMATTR InstName C2
SYMATTR Value {C}
SYMBOL ind 992 -32 R0
SYMATTR InstName L1
SYMATTR Value 500µ
SYMBOL e 1152 -16 R0
SYMATTR InstName E1
SYMATTR Value 1
SYMBOL SN74AHC00 144 -464 R0
SYMATTR InstName U1
SYMBOL CD4069UB 192 -320 R0
SYMATTR InstName U2
SYMBOL CD4069UB 368 -320 R0
SYMATTR InstName U3
SYMBOL CD4069UB 336 -160 R0
SYMATTR InstName U4
SYMBOL SN74AHC00 144 0 R0
SYMATTR InstName U5
SYMBOL CD4069UB -192 -256 R90
SYMATTR InstName U6
SYMBOL cap -16 320 R0
SYMATTR InstName C3
SYMATTR Value {C}
SYMBOL cap 32 576 R0
SYMATTR InstName C4
SYMATTR Value {C}
SYMBOL SN74AHC00 144 256 R0
SYMATTR InstName U7
SYMBOL CD4069UB 192 400 R0
SYMATTR InstName U8
SYMBOL CD4069UB 336 560 R0
SYMATTR InstName U9
SYMBOL SN74AHC00 144 720 R0
SYMATTR InstName U10
SYMBOL CD4069UB -192 464 R90
SYMATTR InstName U11
SYMBOL CD4069UB 368 400 R0
SYMATTR InstName U12
TEXT -344 -632 Left 5 ;Experiment 5 - Half-Bridge Driver
TEXT 840 -392 Left 2 !.param C 10p\n.param R=2k\n;.ic V(Vin_a+) 3V\n;.ic V(Vin_a-) 3V
TEXT -8 248 Left 2 !.tran 10m uic
