Version 4
SHEET 1 1500 1112
WIRE 16 -224 -304 -224
WIRE 16 -176 16 -224
WIRE 16 -176 -16 -176
WIRE -128 -160 -160 -160
WIRE 0 -144 -16 -144
WIRE -128 -128 -320 -128
WIRE 16 -112 -16 -112
WIRE -864 -96 -912 -96
WIRE -736 -96 -736 -128
WIRE -736 -96 -784 -96
WIRE -704 -96 -736 -96
WIRE -608 -96 -608 -144
WIRE -608 -96 -624 -96
WIRE -912 -80 -912 -96
WIRE -608 -64 -608 -96
WIRE 384 -48 384 -80
WIRE -416 -16 -496 -16
WIRE -320 -16 -320 -128
WIRE -320 -16 -416 -16
WIRE -224 0 -224 -16
WIRE -160 0 -160 -160
WIRE -160 0 -224 0
WIRE -144 0 -160 0
WIRE -80 0 -144 0
WIRE 96 0 32 0
WIRE 224 0 208 0
WIRE 320 0 304 0
WIRE -416 16 -416 -16
WIRE -1056 32 -1056 -16
WIRE -144 32 -144 0
WIRE -608 48 -608 16
WIRE -304 48 -304 -224
WIRE -1328 80 -1328 64
WIRE 384 80 384 48
WIRE 608 80 384 80
WIRE 752 80 608 80
WIRE -304 112 -144 32
WIRE 384 112 384 80
WIRE -144 128 -304 48
WIRE -304 144 -304 112
WIRE -288 144 -304 144
WIRE -1056 160 -1056 112
WIRE -176 160 -192 160
WIRE -144 160 -144 128
WIRE -144 160 -176 160
WIRE 64 160 -144 160
WIRE 224 160 176 160
WIRE 320 160 304 160
WIRE -1328 176 -1328 160
WIRE -416 176 -416 128
WIRE -320 176 -416 176
WIRE -192 176 -192 160
WIRE -192 176 -224 176
WIRE -176 176 -176 160
WIRE 752 176 752 80
WIRE 880 176 752 176
WIRE -864 208 -992 208
WIRE -864 240 -880 240
WIRE -624 240 -640 240
WIRE 16 240 -144 240
WIRE 384 240 384 208
WIRE 608 240 608 80
WIRE 656 240 608 240
WIRE 784 240 736 240
WIRE -496 256 -496 -16
WIRE -496 256 -576 256
WIRE -864 272 -880 272
WIRE -576 272 -576 256
WIRE -576 272 -640 272
WIRE -624 288 -624 240
WIRE -496 288 -624 288
WIRE -320 288 -320 176
WIRE -144 288 -144 240
WIRE -144 288 -320 288
WIRE 16 288 16 240
WIRE 16 288 -16 288
WIRE -992 304 -992 208
WIRE -992 304 -1040 304
WIRE -864 304 -880 304
WIRE -224 304 -224 176
WIRE -128 304 -224 304
WIRE 784 304 784 240
WIRE -1296 320 -1344 320
WIRE 0 320 -16 320
WIRE 928 320 928 304
WIRE -880 336 -880 304
WIRE -880 336 -912 336
WIRE -288 336 -288 144
WIRE -128 336 -288 336
WIRE 880 336 880 176
WIRE -1344 352 -1344 320
WIRE -1344 352 -1376 352
WIRE -1296 352 -1344 352
WIRE 16 352 -16 352
WIRE -1296 384 -1376 384
WIRE 928 416 928 400
WIRE 624 448 608 448
WIRE 656 448 624 448
WIRE 784 448 784 384
WIRE 784 448 736 448
WIRE 432 480 432 448
WIRE 16 496 -304 496
WIRE -496 512 -496 288
WIRE -416 512 -496 512
WIRE 880 512 880 384
WIRE 880 512 752 512
WIRE 272 528 240 528
WIRE 368 528 352 528
WIRE 16 544 16 496
WIRE 16 544 -16 544
WIRE -128 560 -160 560
WIRE 0 576 -16 576
WIRE -128 592 -320 592
WIRE 16 608 -16 608
WIRE 432 608 432 576
WIRE 624 608 624 448
WIRE 624 608 432 608
WIRE 752 608 752 512
WIRE 752 608 624 608
WIRE 432 640 432 608
WIRE 368 688 352 688
WIRE -416 704 -416 512
WIRE -320 704 -320 592
WIRE -320 704 -416 704
WIRE -224 720 -224 704
WIRE -160 720 -160 560
WIRE -160 720 -224 720
WIRE -144 720 -160 720
WIRE -80 720 -144 720
WIRE 96 720 32 720
WIRE 240 720 240 528
WIRE 240 720 208 720
WIRE -416 736 -416 704
WIRE -144 752 -144 720
WIRE -304 768 -304 496
WIRE 432 768 432 736
WIRE -304 832 -144 752
WIRE -144 848 -304 768
WIRE -304 864 -304 832
WIRE -288 864 -304 864
WIRE -176 880 -192 880
WIRE -144 880 -144 848
WIRE -144 880 -176 880
WIRE 64 880 -144 880
WIRE 272 880 272 688
WIRE 272 880 176 880
WIRE -416 896 -416 848
WIRE -320 896 -416 896
WIRE -192 896 -192 880
WIRE -192 896 -224 896
WIRE -176 896 -176 880
WIRE 16 960 -144 960
WIRE -320 1008 -320 896
WIRE -144 1008 -144 960
WIRE -144 1008 -320 1008
WIRE 16 1008 16 960
WIRE 16 1008 -16 1008
WIRE -224 1024 -224 896
WIRE -128 1024 -224 1024
WIRE 0 1040 -16 1040
WIRE -288 1056 -288 864
WIRE -128 1056 -288 1056
WIRE 16 1072 -16 1072
FLAG 384 240 0
FLAG 384 -80 VDD
IOPIN 384 -80 In
FLAG 432 768 0
FLAG 432 448 VDD
IOPIN 432 448 In
FLAG -880 272 VDD
IOPIN -880 272 In
FLAG -608 -144 VDD
IOPIN -608 -144 Out
FLAG -608 48 0
FLAG -912 -80 0
FLAG -1056 -16 Vin_a
IOPIN -1056 -16 Out
FLAG -1056 160 0
FLAG -912 336 Vin_a
IOPIN -912 336 In
FLAG -224 -80 0
FLAG -176 240 0
FLAG -1376 352 VCM
IOPIN -1376 352 In
FLAG -1376 384 VDD
IOPIN -1376 384 In
FLAG -1328 64 VREF
IOPIN -1328 64 Out
FLAG -1328 176 0
FLAG -880 240 VCM
IOPIN -880 240 In
FLAG -736 -128 VCM
IOPIN -736 -128 Out
FLAG 928 304 Vaudio
IOPIN 928 304 Out
FLAG 928 416 0
FLAG 0 -144 VDD
IOPIN 0 -144 In
FLAG 16 -112 0
FLAG 160 -32 VDD
IOPIN 160 -32 In
FLAG 160 32 0
FLAG -16 -32 VDD
IOPIN -16 -32 In
FLAG -16 32 0
FLAG 128 128 VDD
IOPIN 128 128 In
FLAG 128 192 0
FLAG 0 320 VDD
IOPIN 0 320 In
FLAG 16 352 0
FLAG -384 80 VDD
IOPIN -384 80 In
FLAG -448 80 0
FLAG -224 640 0
FLAG -176 960 0
FLAG 0 576 VDD
IOPIN 0 576 In
FLAG 16 608 0
FLAG 160 688 VDD
IOPIN 160 688 In
FLAG 160 752 0
FLAG -16 688 VDD
IOPIN -16 688 In
FLAG -16 752 0
FLAG 128 848 VDD
IOPIN 128 848 In
FLAG 128 912 0
FLAG 0 1040 VDD
IOPIN 0 1040 In
FLAG 16 1072 0
FLAG -384 800 VDD
IOPIN -384 800 In
FLAG -448 800 0
SYMBOL res 320 -16 R90
WINDOW 0 0 56 VBottom 2
WINDOW 3 32 56 VTop 2
SYMATTR InstName Rb1
SYMATTR Value {R}
SYMBOL res 320 144 R90
WINDOW 0 0 56 VBottom 2
WINDOW 3 32 56 VTop 2
SYMATTR InstName Rb2
SYMATTR Value {R}
SYMBOL pnp 320 48 M180
WINDOW 3 84 68 Invisible 2
SYMATTR Value 2N2907
SYMATTR InstName Qp1
SYMBOL npn 320 112 R0
WINDOW 3 56 68 Invisible 2
SYMATTR Value 2N2222
SYMATTR InstName Qn1
SYMBOL res 368 512 R90
WINDOW 0 0 56 VBottom 2
WINDOW 3 32 56 VTop 2
SYMATTR InstName Rb3
SYMATTR Value {R}
SYMBOL res 368 672 R90
WINDOW 0 0 56 VBottom 2
WINDOW 3 32 56 VTop 2
SYMATTR InstName Rb4
SYMATTR Value {R}
SYMBOL pnp 368 576 M180
WINDOW 3 84 68 Invisible 2
SYMATTR Value 2N2907
SYMATTR InstName Qp2
SYMBOL npn 368 640 R0
WINDOW 3 56 68 Invisible 2
SYMATTR Value 2N2222
SYMATTR InstName Qn2
SYMBOL voltage -608 -80 R0
SYMATTR InstName VDD1
SYMATTR Value 5
SYMBOL res -608 -112 R90
WINDOW 0 0 56 VBottom 2
WINDOW 3 32 56 VTop 2
SYMATTR InstName R1
SYMATTR Value 10
SYMBOL res -768 -112 R90
WINDOW 0 0 56 VBottom 2
WINDOW 3 32 56 VTop 2
SYMATTR InstName R2
SYMATTR Value 10
SYMBOL voltage -1056 16 R0
WINDOW 123 0 0 Left 0
WINDOW 39 0 0 Left 0
SYMATTR InstName Input1
SYMATTR Value SINE(2.5 0.4 1k 0 0 0 1k)
SYMBOL res 752 224 R90
WINDOW 0 0 56 VBottom 2
WINDOW 3 32 56 VTop 2
SYMATTR InstName R3
SYMATTR Value 16
SYMBOL res 752 432 R90
WINDOW 0 0 56 VBottom 2
WINDOW 3 32 56 VTop 2
SYMATTR InstName R4
SYMATTR Value 16
SYMBOL cap -240 -80 R0
SYMATTR InstName C1
SYMATTR Value {C}
SYMBOL cap -192 176 R0
SYMATTR InstName C2
SYMATTR Value {C}
SYMBOL voltage -1328 64 R0
WINDOW 0 24 16 Invisible 2
WINDOW 3 79 92 Invisible 0
SYMATTR InstName VREF1
SYMATTR Value SINE(125m 125m 1 0 0 0)
SYMBOL ind 768 288 R0
SYMATTR InstName L1
SYMATTR Value 500µ
SYMBOL e 928 304 R0
SYMATTR InstName E1
SYMATTR Value 1
SYMBOL Draft11 -752 256 R0
SYMATTR InstName X1
SYMBOL module_expt1 -1168 352 R0
SYMATTR InstName X2
SYMBOL SN74AHC00 -80 -144 R0
SYMATTR InstName U1
SYMBOL CD4069UB -32 0 R0
SYMATTR InstName U2
SYMBOL CD4069UB 144 0 R0
SYMATTR InstName U3
SYMBOL CD4069UB 112 160 R0
SYMATTR InstName U4
SYMBOL SN74AHC00 -80 320 R0
SYMATTR InstName U5
SYMBOL CD4069UB -416 64 R90
SYMATTR InstName U6
SYMBOL cap -240 640 R0
SYMATTR InstName C3
SYMATTR Value {C}
SYMBOL cap -192 896 R0
SYMATTR InstName C4
SYMATTR Value {C}
SYMBOL SN74AHC00 -80 576 R0
SYMATTR InstName U7
SYMBOL CD4069UB -32 720 R0
SYMATTR InstName U8
SYMBOL CD4069UB 112 880 R0
SYMATTR InstName U9
SYMBOL SN74AHC00 -80 1040 R0
SYMATTR InstName U10
SYMBOL CD4069UB -416 784 R90
SYMATTR InstName U11
SYMBOL CD4069UB 144 720 R0
SYMATTR InstName U12
TEXT -568 -312 Left 5 ;Experiment 5 - Half-Bridge Driver
TEXT 616 -72 Left 2 !.param C 10p\n.param R=2k\n;.ic V(Vin_a+) 3V\n;.ic V(Vin_a-) 3V
TEXT -232 568 Left 2 !.tran 10m uic
