Version 4
SHEET 1 924 680
WIRE -32 80 -64 80
WIRE -320 96 -336 96
WIRE 32 112 16 112
WIRE 272 112 192 112
WIRE -320 128 -368 128
WIRE 32 144 -64 144
WIRE 208 144 192 144
WIRE -320 160 -336 160
WIRE 272 256 272 112
WIRE -16 288 -80 288
WIRE 96 288 48 288
WIRE 96 368 96 288
WIRE 96 368 48 368
WIRE 112 368 96 368
WIRE 272 368 272 320
WIRE 272 368 192 368
WIRE -368 384 -368 128
WIRE -80 384 -80 288
WIRE -80 384 -368 384
WIRE -16 384 -80 384
WIRE 96 400 48 400
WIRE 272 416 272 368
WIRE 272 512 272 496
FLAG 272 512 0
FLAG 16 352 0
FLAG 96 400 Vref
FLAG -336 160 Vdd
FLAG 16 112 Vdd
FLAG -672 256 Vdd
FLAG -672 336 0
FLAG -576 336 0
FLAG -576 256 V_bias
FLAG -336 96 V_bias
FLAG 16 416 Vdd
FLAG 112 544 0
FLAG 112 464 Vref
SYMBOL expt_2_3 112 128 R0
SYMATTR InstName Expt_2
SYMBOL module_expt1 -192 128 R0
SYMATTR InstName X1
SYMBOL res 256 400 R0
SYMATTR InstName R2
SYMATTR Value 5
SYMBOL res 208 352 R90
WINDOW 0 0 56 VBottom 2
WINDOW 3 32 56 VTop 2
SYMATTR InstName R3
SYMATTR Value 50k
SYMBOL cap 48 272 R90
WINDOW 0 0 32 VBottom 2
WINDOW 3 32 32 VTop 2
SYMATTR InstName C1
SYMATTR Value 5n
SYMBOL MCP6001 16 384 R180
SYMATTR InstName U1
SYMBOL voltage -672 240 R0
SYMATTR InstName V1
SYMATTR Value 5
SYMBOL voltage -576 240 R0
SYMATTR InstName V2
SYMATTR Value 2.5
SYMBOL LED 256 256 R0
SYMATTR InstName D1
SYMATTR Value L128-FRD1003500000
SYMBOL voltage 112 448 R0
SYMATTR InstName V3
SYMATTR Value 0.25
TEXT -552 136 Left 2 !.tran 100m
