Version 4
SHEET 1 880 680
WIRE -448 -96 -480 -96
WIRE -368 -96 -448 -96
WIRE -96 -96 -368 -96
WIRE -96 -64 -192 -64
WIRE 144 -64 -32 -64
WIRE 560 -64 544 -64
WIRE -896 -48 -992 -144
WIRE 256 -48 256 -80
WIRE 384 -48 384 -80
WIRE -896 -16 -992 -16
WIRE -448 0 -448 -96
WIRE -448 0 -640 0
WIRE -896 16 -960 16
WIRE 144 32 144 -64
WIRE 192 32 144 32
WIRE 544 32 544 -64
WIRE 544 32 448 32
WIRE -192 48 -192 -64
WIRE -64 48 -128 48
WIRE 608 80 608 16
WIRE 656 80 608 80
WIRE 768 80 736 80
WIRE 832 80 768 80
WIRE -368 96 -368 -96
WIRE -960 112 -960 16
WIRE -960 112 -992 112
WIRE -112 128 -128 128
WIRE 16 128 -48 128
WIRE 192 128 144 128
WIRE 544 128 448 128
WIRE 608 144 608 80
WIRE -192 208 -192 128
WIRE -112 208 -192 208
WIRE 544 224 544 128
WIRE 560 224 544 224
WIRE -368 240 -368 160
WIRE -112 240 -368 240
WIRE 0 240 -48 240
WIRE 144 240 144 128
WIRE 144 240 64 240
WIRE 256 240 256 208
WIRE 384 240 384 208
FLAG -256 48 0
FLAG -256 128 0
FLAG 608 240 0
FLAG 608 -80 Vdd
FLAG 832 80 Vout
FLAG 768 144 0
FLAG 16 128 V_Gate_P
FLAG -64 48 V_Gate_N
FLAG -480 -96 Vpwm
FLAG -1072 -144 0
FLAG -1072 -16 0
FLAG -1072 112 0
FLAG -960 112 Vdd
FLAG 544 128 V_Gate_N
FLAG 544 32 V_Gate_P
FLAG 384 -80 Vdd
FLAG 256 -80 Vdd
FLAG 256 240 0
FLAG 384 240 0
FLAG -128 32 Vdd
FLAG -128 112 Vdd
FLAG -48 112 Vdd
FLAG -384 96 Vdd
FLAG 0 256 Vdd
SYMBOL Digital\\inv -48 192 R180
SYMATTR InstName A1
SYMBOL pmos 560 16 M180
SYMATTR InstName M1
SYMBOL nmos 560 144 R0
SYMATTR InstName M2
SYMBOL Digital\\inv -128 192 R180
SYMATTR InstName A3
SYMBOL Digital\\inv -128 112 R180
SYMATTR InstName A4
SYMBOL Digital\\and -80 160 R0
SYMATTR InstName A5
SYMBOL Digital\\inv -304 96 R90
SYMATTR InstName A6
SYMBOL Digital\\and -64 -144 R0
SYMATTR InstName A7
SYMBOL Digital\\inv 0 176 R0
SYMATTR InstName A2
SYMBOL cap -192 112 R90
WINDOW 0 0 32 VBottom 2
WINDOW 3 32 32 VTop 2
SYMATTR InstName C1
SYMATTR Value 1n
SYMBOL cap -192 32 R90
WINDOW 0 0 32 VBottom 2
WINDOW 3 32 32 VTop 2
SYMATTR InstName C2
SYMATTR Value 1n
SYMBOL ind 640 96 R270
WINDOW 0 32 56 VTop 2
WINDOW 3 5 56 VBottom 2
SYMATTR InstName L1
SYMATTR Value 100µ
SYMBOL cap 752 80 R0
SYMATTR InstName C3
SYMATTR Value 47p
SYMBOL PowerProducts\\LTC1693-1 320 80 R0
SYMATTR InstName U1
SYMBOL module_expt1 -768 -16 R0
SYMATTR InstName X1
SYMBOL voltage -976 112 R90
WINDOW 0 -32 56 VBottom 2
WINDOW 3 32 56 VTop 2
SYMATTR InstName V1
SYMATTR Value 5
SYMBOL voltage -976 -16 R90
WINDOW 0 -32 56 VBottom 2
WINDOW 3 32 56 VTop 2
SYMATTR InstName V2
SYMATTR Value 2.25
SYMBOL voltage -976 -144 R90
WINDOW 0 -32 56 VBottom 2
WINDOW 3 32 56 VTop 2
SYMATTR InstName V3
SYMATTR Value 2.5
TEXT 680 128 Left 4 ;LPF
TEXT -312 304 Left 4 ;Non-overlap Clock Generator
TEXT -1080 344 Left 2 !.tran 200u
RECTANGLE Normal 96 336 -416 -144 2
RECTANGLE Normal 816 160 640 16 2
