Version 4
SHEET 1 972 680
WIRE 16 -320 -224 -320
WIRE -16 -256 -48 -256
WIRE -224 -240 -224 -320
WIRE -160 -240 -224 -240
WIRE -32 -224 -48 -224
WIRE -160 -208 -192 -208
WIRE -32 -192 -48 -192
WIRE -432 -96 -544 -96
WIRE -16 -96 -16 -256
WIRE -16 -96 -432 -96
WIRE 608 -96 608 -112
WIRE 560 -80 544 -80
WIRE 16 -64 16 -320
WIRE 144 -64 16 -64
WIRE -96 -48 -96 -64
WIRE 256 -48 256 -80
WIRE 384 -48 384 -80
WIRE -192 -16 -192 -208
WIRE -144 -16 -192 -16
WIRE -16 -16 -32 -16
WIRE -96 32 -96 16
WIRE 144 32 144 -64
WIRE 192 32 144 32
WIRE 544 32 544 -80
WIRE 544 32 448 32
WIRE -336 48 -352 48
WIRE -192 48 -192 -16
WIRE -192 48 -272 48
WIRE -432 64 -432 -96
WIRE 608 80 608 0
WIRE 656 80 608 80
WIRE 848 80 736 80
WIRE 912 80 848 80
WIRE -176 96 -176 80
WIRE -32 96 -32 64
WIRE -336 128 -352 128
WIRE -256 128 -272 128
WIRE -224 128 -256 128
WIRE -80 128 -112 128
WIRE 48 128 32 128
WIRE 192 128 144 128
WIRE 544 128 448 128
WIRE 608 144 608 80
WIRE -176 176 -176 160
WIRE -32 192 -32 160
WIRE -256 224 -256 128
WIRE -112 224 -256 224
WIRE 544 224 544 128
WIRE 560 224 544 224
WIRE -432 240 -432 176
WIRE -240 240 -432 240
WIRE 48 240 48 224
WIRE 256 240 256 208
WIRE 384 240 384 208
WIRE -16 272 -192 272
WIRE 144 272 144 128
WIRE 144 272 96 272
WIRE 48 320 48 304
WIRE -112 352 -112 224
WIRE 0 352 -112 352
WIRE 0 400 0 352
WIRE 0 400 -32 400
WIRE -192 416 -192 272
WIRE -144 416 -192 416
WIRE -16 432 -32 432
WIRE -240 448 -240 240
WIRE -144 448 -240 448
WIRE -16 464 -32 464
FLAG -352 48 0
FLAG -352 128 0
FLAG 608 240 0
FLAG 608 -112 Vdd
IOPIN 608 -112 In
FLAG 912 80 Vout
IOPIN 912 80 Out
FLAG 848 144 0
FLAG 48 128 V_Gate_P
FLAG -16 -16 V_Gate_N
FLAG -544 -96 Vpwm
IOPIN -544 -96 In
FLAG 544 128 V_Gate_N
FLAG 544 32 V_Gate_P
FLAG 384 -80 Vdd
IOPIN 384 -80 In
FLAG 256 -80 Vdd
IOPIN 256 -80 In
FLAG 256 240 0
FLAG 384 240 0
FLAG -400 128 Vdd
IOPIN -400 128 In
FLAG -32 -224 Vdd
IOPIN -32 -224 In
FLAG -32 -192 0
FLAG -16 432 Vdd
IOPIN -16 432 In
FLAG -16 464 0
FLAG -464 128 0
FLAG -96 32 Vdd
IOPIN -96 32 In
FLAG -96 -64 0
FLAG -176 176 Vdd
IOPIN -176 176 In
FLAG -176 80 0
FLAG -32 192 Vdd
IOPIN -32 192 In
FLAG -32 64 0
FLAG 48 224 Vdd
IOPIN 48 224 In
FLAG 48 320 0
FLAG 608 80 Vsw
IOPIN 608 80 Out
SYMBOL pmos 560 0 M180
SYMATTR InstName M1
SYMATTR Value Si4427DY
SYMBOL nmos 560 144 R0
SYMATTR InstName M2
SYMATTR Value NTMFS5C646NL
SYMBOL cap -272 112 R90
WINDOW 0 0 32 VBottom 2
WINDOW 3 32 32 VTop 2
SYMATTR InstName C1
SYMATTR Value 1n
SYMBOL cap -272 32 R90
WINDOW 0 0 32 VBottom 2
WINDOW 3 32 32 VTop 2
SYMATTR InstName C2
SYMATTR Value 1n
SYMBOL ind 640 96 R270
WINDOW 0 32 56 VTop 2
WINDOW 3 5 56 VBottom 2
SYMATTR InstName L1
SYMATTR Value 100µ
SYMBOL cap 832 80 R0
SYMATTR InstName C3
SYMATTR Value 47µ
SYMBOL PowerProducts\\LTC1693-1 320 80 R0
SYMATTR InstName U1
SYMBOL CD4069UB 32 272 R0
SYMATTR InstName U2
SYMBOL CD4069UB -432 112 R90
SYMATTR InstName U3
SYMBOL CD4069UB -80 -16 R180
SYMATTR InstName U4
SYMBOL CD4069UB -160 128 R180
SYMATTR InstName U5
SYMBOL CD4069UB -16 128 R180
SYMATTR InstName U6
SYMBOL SN74AHC00 -112 -224 R0
SYMATTR InstName U7
SYMBOL SN74AHC00 -96 432 R0
SYMATTR InstName U8
TEXT 680 128 Left 4 ;LPF
TEXT -464 488 Left 4 ;Non-overlap Clock Generator
RECTANGLE Normal 160 544 -512 -352 2
