Version 4
SHEET 1 1240 680
WIRE 848 16 784 16
WIRE 992 32 912 32
WIRE 848 48 816 48
WIRE 304 64 272 64
WIRE 432 64 384 64
WIRE 96 144 80 144
WIRE 128 144 96 144
WIRE 272 144 272 64
WIRE 272 144 208 144
WIRE 320 144 272 144
WIRE 432 160 432 64
WIRE 432 160 384 160
WIRE 496 160 432 160
WIRE 784 160 784 16
WIRE 784 160 496 160
WIRE 320 176 272 176
WIRE 96 240 96 144
WIRE 496 240 96 240
WIRE 784 240 496 240
WIRE 784 320 784 240
WIRE 848 320 784 320
WIRE 992 336 912 336
WIRE 816 352 816 48
WIRE 848 352 816 352
WIRE 816 432 816 352
WIRE 816 432 656 432
WIRE 400 448 368 448
WIRE 400 480 368 480
WIRE 400 512 368 512
FLAG 272 176 Vcm
FLAG 16 144 Vin_a
FLAG 496 160 Vin_a-
FLAG 496 240 Vin_a+
FLAG 992 32 Vpwm_p
FLAG 992 336 Vpwm_n
FLAG 32 624 0
FLAG 128 624 0
FLAG 224 624 0
FLAG 32 544 V_bias
FLAG 128 544 Vctrl
FLAG 224 544 Vdd
FLAG 368 448 V_bias
FLAG 368 480 Vctrl
FLAG 368 512 Vdd
FLAG -160 224 0
FLAG -160 144 Vin_a
FLAG 880 64 Vdd
FLAG 880 368 Vdd
FLAG 880 304 0
FLAG 880 0 0
FLAG 352 128 0
FLAG 352 192 Vdd
FLAG -272 224 0
FLAG -272 144 Vcm
SYMBOL cap 80 128 R90
WINDOW 0 0 32 VBottom 2
WINDOW 3 32 32 VTop 2
SYMATTR InstName C1
SYMATTR Value 1µ
SYMBOL res 224 128 R90
WINDOW 0 0 56 VBottom 2
WINDOW 3 32 56 VTop 2
SYMATTR InstName R1
SYMATTR Value 2k
SYMBOL res 400 48 R90
WINDOW 0 0 56 VBottom 2
WINDOW 3 32 56 VTop 2
SYMATTR InstName R2
SYMATTR Value 2k
SYMBOL MCP6001 352 160 M180
SYMATTR InstName U1
SYMBOL module_expt1 528 480 R0
SYMATTR InstName X1
SYMBOL voltage 32 528 R0
SYMATTR InstName V1
SYMATTR Value 2.5
SYMBOL voltage 128 528 R0
SYMATTR InstName V2
SYMATTR Value 2.5
SYMBOL voltage 224 528 R0
SYMATTR InstName V3
SYMATTR Value 5
SYMBOL voltage -160 128 R0
WINDOW 123 0 0 Left 0
WINDOW 39 0 0 Left 0
SYMATTR InstName V4
SYMATTR Value SINE(0 0.5 1k)
SYMBOL voltage -272 128 R0
WINDOW 123 0 0 Left 0
WINDOW 39 0 0 Left 0
SYMATTR InstName V5
SYMATTR Value 2.5V
SYMBOL Comparators\\LTC6752 880 96 M180
SYMATTR InstName U6
SYMBOL Comparators\\LTC6752 880 400 M180
SYMATTR InstName U7
TEXT 168 280 Left 2 ;Single-ended to Differential Convertor
TEXT -192 640 Left 2 !.tran 10m
RECTANGLE Normal 592 304 -48 16 2
