Version 4
SHEET 1 1032 708
WIRE 288 112 256 112
WIRE 576 128 528 128
WIRE 656 128 640 128
WIRE 320 144 256 144
WIRE 320 160 320 144
WIRE 368 160 320 160
WIRE 544 160 528 160
WIRE 576 160 576 128
WIRE 656 160 576 160
WIRE 288 176 256 176
WIRE 656 192 640 192
WIRE -160 208 -160 192
WIRE -160 304 -160 288
WIRE 288 320 256 320
WIRE 272 352 256 352
WIRE 272 384 256 384
WIRE 320 384 304 384
WIRE 576 384 544 384
WIRE 320 416 256 416
WIRE 560 416 544 416
WIRE 320 448 256 448
WIRE 576 448 544 448
WIRE 480 544 432 544
WIRE 480 576 432 576
WIRE 224 608 176 608
WIRE 480 608 432 608
WIRE 224 640 176 640
FLAG -416 208 Vdd
FLAG -320 208 V_in
FLAG -160 192 V_bias
FLAG -416 288 0
FLAG -320 288 0
FLAG -160 304 0
FLAG 0 176 Vdd
FLAG 48 368 Vdd
FLAG 368 128 Vdd
FLAG 640 128 Vdd
FLAG 224 576 Vdd
FLAG 304 384 Vdd
FLAG -48 624 Vdd
FLAG 256 160 Vcm
FLAG -48 592 Vcm
FLAG 256 96 Vramp
FLAG 48 432 Vramp
FLAG -48 656 V_in
FLAG 224 544 Vcm
FLAG 432 640 Vref
FLAG 640 192 Vref
FLAG 48 400 V_in
FLAG 832 160 Vctrl
FLAG 0 144 Vctrl
FLAG 0 112 V_bias
SYMBOL module_expt1 128 144 R0
SYMATTR InstName X1
SYMBOL expt_2_3 448 144 R0
SYMATTR InstName X2
SYMBOL voltage -416 192 R0
WINDOW 123 0 0 Left 0
WINDOW 39 0 0 Left 0
SYMATTR InstName V1
SYMATTR Value 5
SYMBOL voltage -320 192 R0
WINDOW 123 0 0 Left 0
WINDOW 39 0 0 Left 0
SYMATTR InstName V3
SYMATTR Value SINE(2.5 0.45 1k)
SYMBOL voltage -160 192 R0
SYMATTR InstName V2
SYMATTR Value 2.5
SYMBOL Draft19 144 384 R0
SYMATTR InstName X8
SYMBOL Draft22 320 592 R0
SYMATTR InstName X4
SYMBOL Draft21 64 624 R0
SYMATTR InstName X7
SYMBOL Draft20 432 416 R0
SYMATTR InstName X6
SYMBOL expt3_schema 736 160 R0
SYMATTR InstName X9
TEXT -448 696 Left 2 !.tran 0 50ms 10ms
