Version 4
SHEET 1 880 680
WIRE 528 -32 -176 -32
WIRE 16 48 -32 48
WIRE 144 48 80 48
WIRE 400 64 352 64
WIRE 528 64 528 -32
WIRE 528 64 480 64
WIRE -384 96 -384 64
WIRE -176 144 -176 -32
WIRE -144 144 -176 144
WIRE -32 144 -32 48
WIRE -32 144 -64 144
WIRE 16 144 -32 144
WIRE 144 160 144 48
WIRE 144 160 80 160
WIRE 224 160 144 160
WIRE 352 160 352 64
WIRE 352 160 304 160
WIRE 400 160 352 160
WIRE 16 176 -32 176
WIRE 528 176 528 64
WIRE 528 176 464 176
WIRE 400 192 368 192
WIRE -384 208 -384 176
WIRE -320 208 -384 208
WIRE -384 224 -384 208
WIRE 144 240 144 160
WIRE 144 240 96 240
WIRE 144 304 144 240
WIRE 240 304 240 288
WIRE 240 304 208 304
WIRE 400 304 240 304
WIRE 512 320 464 320
WIRE -384 336 -384 304
WIRE 400 336 368 336
WIRE 240 416 240 384
FLAG -384 336 0
FLAG -320 208 Vcm
IOPIN -320 208 Out
FLAG -384 64 Vdd
IOPIN -384 64 In
FLAG -32 176 Vcm
FLAG 368 336 Vctrl
IOPIN 368 336 In
FLAG 528 176 Vsqr
IOPIN 528 176 Out
FLAG 512 320 Vpwm
IOPIN 512 320 Out
FLAG 368 192 Vcm
FLAG 240 416 V_bias
IOPIN 240 416 In
FLAG 48 128 Vdd
IOPIN 48 128 In
FLAG 432 208 Vdd
IOPIN 432 208 In
FLAG 432 288 Vdd
IOPIN 432 288 In
FLAG 96 240 V_ramp
IOPIN 96 240 Out
FLAG 240 288 V_ramp_b
IOPIN 240 288 Out
FLAG 432 352 0
FLAG 432 144 0
FLAG 48 192 0
SYMBOL res -48 128 R90
WINDOW 0 0 56 VBottom 2
WINDOW 3 32 56 VTop 2
SYMATTR InstName R1
SYMATTR Value {R1}
SYMBOL res 320 144 R90
WINDOW 0 0 56 VBottom 2
WINDOW 3 32 56 VTop 2
SYMATTR InstName R2
SYMATTR Value {R2}
SYMBOL res 224 400 M180
WINDOW 0 36 76 Left 2
WINDOW 3 36 40 Left 2
SYMATTR InstName R_bias
SYMATTR Value {R_bias}
SYMBOL res 384 80 R270
WINDOW 0 32 56 VTop 2
WINDOW 3 0 56 VBottom 2
SYMATTR InstName R3
SYMATTR Value {R3}
SYMBOL cap 80 32 R90
WINDOW 0 0 32 VBottom 2
WINDOW 3 32 32 VTop 2
SYMATTR InstName C1
SYMATTR Value {C1}
SYMBOL cap 208 288 R90
WINDOW 0 0 32 VBottom 2
WINDOW 3 32 32 VTop 2
SYMATTR InstName C_bias
SYMATTR Value {C_bias}
SYMBOL res -400 80 R0
SYMATTR InstName R5
SYMATTR Value {R5}
SYMBOL res -400 208 R0
SYMATTR InstName R6
SYMATTR Value {R6}
SYMBOL OpAmps\\UniversalOpAmp 48 160 R0
SYMATTR InstName OPA1
SYMBOL Comparators\\LTC6752 432 256 R0
SYMATTR InstName U1
SYMBOL Comparators\\LTC6752 432 240 M180
SYMATTR InstName U2
TEXT -232 256 Left 2 !.param R1 = 10k\n.param R2 = 10k\n.param R3 = 50k\n.param R4 = 10k\n.param R5 = 5k\n.param R6 = 5k\n.param R_bias = 10k\n \n.param C1 = 1.25n\n.param C_bias = 1.25n
